! Blank file in which we can put "overrides" for parameters
#override DAYMAX = ;DAYMAX;
#override NIGLOBAL = ;NIGLOBAL;
#override NJGLOBAL = ;NJGLOBAL;
#override DT = ;DT;
#override DT_THERM = ;DT_THERM;
#override KHTH = ;KHTH;


#override USE_MEKE = True
#override USE_DBCLIENT = True
#override DBCLIENT_CLUSTER = False
#override EKE_SOURCE = "dbclient"
#override MEKE_TRAINING = ;MEKE_TRAINING;
#override MEKE_COLD_START = False
#override USE_VARIABLE_MIXING = True
#override MEKE_KHCOEFF = ;MEKE_KHCOEFF;
EKE_SET_MODEL = False
EKE_MODEL_KEY = "mleke"
MEKE_IN_DYNAMICS = False